mtd/3phase_linearization/4Bus_sets/4Bus-YD-Bal/4busYDBal_Curr_Seq.Txt

SYMMETRICAL COMPONENT CURRENTS BY CIRCUIT ELEMENT (first 3 phases)

Element          Term      I1         I2         %I2/I1    I0         %I0/I1   %Normal %Emergency

"VSOURCE.SOURCE"   1      335.84      0.11453     0.03  0.00044376     0.00      0.00     0.00
   -               2      335.84      0.11453     0.03  0.00044376     0.00      0.00     0.00
"LINE.LINE1" ...   1      335.84      0.11453     0.03  0.00044376     0.00      0.00     0.00
   -               2      335.85      0.11276     0.03  1.6053E-007     0.00      0.00     0.00
"TRANSFORMER.T1"   1      335.85      0.11276     0.03  1.6053E-007     0.00    109.93    80.61
   -               2      1006.7        0.338     0.03  1.3769E-005     0.00      0.00     0.00
"LINE.LINE2" ...   1      1006.7        0.338     0.03  1.3769E-005     0.00      0.00     0.00
   -               2      1006.7      0.33722     0.03  7.6528E-013     0.00      0.00     0.00
"LOAD.LOAD1" ...   1      1006.8      0.33617     0.03  1.0248E-013     0.00      0.00     0.00
